  Page 1                                    Fri Feb 19 14:50:03 2021

  ******************************************************************
  *                           E P A N E T                          *
  *                   Hydraulic and Water Quality                  *
  *                   Analysis for Pipe Networks                   *
  *                         Version 2.2                            *
  ******************************************************************
  
  Analysis begun Fri Feb 19 14:50:03 2021

  WARNING: Negative pressures at 0:00:00 hrs.
   
  Analysis ended Fri Feb 19 14:50:03 2021
