  Page 1                                    Tue Feb 09 12:00:54 2021

  ******************************************************************
  *                           E P A N E T                          *
  *                   Hydraulic and Water Quality                  *
  *                   Analysis for Pipe Networks                   *
  *                         Version 2.2                            *
  ******************************************************************
  
  Analysis begun Tue Feb 09 12:00:54 2021

  WARNING: Negative pressures at 0:00:00 hrs.
   
  Analysis ended Tue Feb 09 12:00:54 2021
