  Page 1                                    Thu Feb 11 21:42:26 2021

  ******************************************************************
  *                           E P A N E T                          *
  *                   Hydraulic and Water Quality                  *
  *                   Analysis for Pipe Networks                   *
  *                         Version 2.2                            *
  ******************************************************************
  
  Analysis begun Thu Feb 11 21:42:26 2021

  WARNING: Negative pressures at 0:00:00 hrs.
   
  Analysis ended Thu Feb 11 21:42:26 2021
