  Page 1                                    Wed Feb 10 18:05:08 2021

  ******************************************************************
  *                           E P A N E T                          *
  *                   Hydraulic and Water Quality                  *
  *                   Analysis for Pipe Networks                   *
  *                         Version 2.2                            *
  ******************************************************************
  
  Analysis begun Wed Feb 10 18:05:08 2021

  WARNING: Negative pressures at 0:00:00 hrs.
   
  Analysis ended Wed Feb 10 18:05:08 2021
