  Page 1                                    Wed Feb 10 17:49:29 2021

  ******************************************************************
  *                           E P A N E T                          *
  *                   Hydraulic and Water Quality                  *
  *                   Analysis for Pipe Networks                   *
  *                         Version 2.2                            *
  ******************************************************************
  
  Analysis begun Wed Feb 10 17:49:29 2021

  Analysis ended Wed Feb 10 17:49:29 2021
