  Page 1                                    Thu Jan 14 11:47:12 2021

  ******************************************************************
  *                           E P A N E T                          *
  *                   Hydraulic and Water Quality                  *
  *                   Analysis for Pipe Networks                   *
  *                         Version 2.2                            *
  ******************************************************************
  
  Analysis begun Thu Jan 14 11:47:12 2021

  WARNING: Negative pressures at 0:00:00 hrs.
   
  Analysis ended Thu Jan 14 11:47:12 2021
