  Page 1                                    Thu Feb 18 20:07:39 2021

  ******************************************************************
  *                           E P A N E T                          *
  *                   Hydraulic and Water Quality                  *
  *                   Analysis for Pipe Networks                   *
  *                         Version 2.2                            *
  ******************************************************************
  
  Analysis begun Thu Feb 18 20:07:39 2021

  Analysis ended Thu Feb 18 20:07:39 2021
